sol/case_ieee30.m
function mpc = case_ieee30
%CASE_IEEE30

%% MATPOWER Case Format : Version 2
mpc.version = '2';

%%-----  Power Flow Data  -----%%
%% system MVA base
mpc.baseMVA = 100;

%% bus data
%	bus_i	type	Pd	Qd	Gs	Bs	area	Vm	Va	baseKV	zone	Vmax	Vmin	lam_P	lam_Q	mu_Vmax	mu_Vmin
mpc.bus = [
	1	3	0	0	0	0	1	1.05999986	0	132	1	1.06	0.94	36.3129	-0.1278	781.3476	0.0000;
	2	2	21.7	12.7	0	0	1	1.0394744	-4.19797535	132	1	1.06	0.94	38.1140	0.0000	0.0000	0.0000;
	3	1	2.4	1.2	0	0	1	1.02117943	-6.1965603	132	1	1.06	0.94	38.8229	0.2543	0.0000	0.0000;
	4	1	7.6	1.6	0	0	1	1.01184452	-7.62144566	132	1	1.06	0.94	39.5619	0.2744	0.0000	0.0000;
	5	2	94.2	19	0	0	1	1.0129335	-10.8254898	132	1	1.06	0.94	40.5870	0.0000	0.0000	0.0000;
	6	1	0	0	0	0	1	1.01085548	-8.98953516	132	1	1.06	0.94	40.0839	0.1925	0.0000	0.0000;
	7	1	22.8	10.9	0	0	1	1.00383892	-10.2706258	132	1	1.06	0.94	40.5696	0.2558	0.0000	0.0000;
	8	2	30	30	0	0	1	1.01293667	-9.49122536	132	1	1.06	0.94	40.2588	0.1008	0.0000	0.0000;
	9	1	0	0	0	0	1	1.04219459	-11.8064049	1	1	1.06	0.94	40.0891	0.1464	0.0000	0.0000;
	10	1	5.8	2	0	19	1	1.03848473	-13.5446961	33	1	1.06	0.94	40.0936	0.2009	0.0000	0.0000;
	11	2	0	0	0	0	1	1.05999847	-11.3322518	11	1	1.06	0.94	40.0879	0.0000	73.3400	0.0000;
	12	1	11.2	7.5	0	0	1	1.04979186	-13.0497829	33	1	1.06	0.94	39.6523	0.0896	0.0000	0.0000;
	13	2	0	0	0	0	1	1.05999835	-13.0497589	11	1	1.06	0.94	39.6523	-0.0000	67.1902	0.0000;
	14	1	6.2	1.6	0	0	1	1.03495549	-13.9218915	33	1	1.06	0.94	40.3179	0.2922	0.0000	0.0000;
	15	1	8.2	2.5	0	0	1	1.03065805	-13.9850493	33	1	1.06	0.94	40.5067	0.4033	0.0000	0.0000;
	16	1	3.5	1.8	0	0	1	1.03750299	-13.5261086	33	1	1.06	0.94	40.1075	0.2934	0.0000	0.0000;
	17	1	9	5.8	0	0	1	1.03309053	-13.7572046	33	1	1.06	0.94	40.2405	0.3227	0.0000	0.0000;
	18	1	3.2	0.9	0	0	1	1.02119554	-14.5340494	33	1	1.06	0.94	40.9375	0.5330	0.0000	0.0000;
	19	1	9.5	3.4	0	0	1	1.0187478	-14.6660119	33	1	1.06	0.94	41.0328	0.5622	0.0000	0.0000;
	20	1	2.2	0.7	0	0	1	1.02290051	-14.4435591	33	1	1.06	0.94	40.8224	0.4833	0.0000	0.0000;
	21	1	17.5	11.2	0	0	1	1.02619686	-14.0051097	33	1	1.06	0.94	40.5230	0.4564	0.0000	0.0000;
	22	1	0	0	0	0	1	1.02679171	-13.9946427	33	1	1.06	0.94	40.5084	0.4391	0.0000	0.0000;
	23	1	3.2	1.6	0	0	1	1.02065211	-14.3232392	33	1	1.06	0.94	40.8790	0.5821	0.0000	0.0000;
	24	1	8.7	6.7	0	4.3	1	1.01574743	-14.4237335	33	1	1.06	0.94	41.0369	0.6466	0.0000	0.0000;
	25	1	0	0	0	0	1	1.01401715	-14.0027528	33	1	1.06	0.94	40.7820	0.7119	0.0000	0.0000;
	26	1	3.5	2.3	0	0	1	0.996279703	-14.4252134	33	1	1.06	0.94	41.5427	1.2199	0.0000	0.0000;
	27	1	0	0	0	0	1	1.02152188	-13.47908	33	1	1.06	0.94	40.3193	0.5197	0.0000	0.0000;
	28	1	0	0	0	0	1	1.0075841	-9.55800129	132	1	1.06	0.94	40.3215	0.2415	0.0000	0.0000;
	29	1	2.4	0.9	0	0	1	1.00164573	-14.7132709	33	1	1.06	0.94	41.4501	0.8366	0.0000	0.0000;
	30	1	10.6	1.9	0	0	1	0.990149795	-15.5992446	33	1	1.06	0.94	42.2332	0.9666	0.0000	0.0000;
];

%% generator data
%	bus	Pg	Qg	Qmax	Qmin	Vg	mBase	status	Pmax	Pmin	Pc1	Pc2	Qc1min	Qc1max	Qc2min	Qc2max	ramp_agc	ramp_10	ramp_30	ramp_q	apf	mu_Pmax	mu_Pmin	mu_Qmax	mu_Qmin
mpc.gen = [
	1	212.230551	0.000870415443	10	0	1.05999986	100	1	360.2	0	0	0	0	0	0	0	0	0	0	0	0	0.0000	0.0000	0.0000	0.1278;
	2	36.2280916	27.1747256	50	-40	1.0394744	100	1	140	0	0	0	0	0	0	0	0	0	0	0	0	0.0000	0.0000	0.0000	0.0000;
	5	29.3494859	29.9477604	40	-40	1.0129335	100	1	100	0	0	0	0	0	0	0	0	0	0	0	0	0.0000	0.0000	0.0000	0.0000;
	8	12.9380977	39.9987005	40	-10	1.01293667	100	1	100	0	0	0	0	0	0	0	0	0	0	0	0	0.0000	0.0000	0.1008	0.0000;
	11	4.39523202	9.091304	24	-6	1.05999847	100	1	100	0	0	0	0	0	0	0	0	0	0	0	0	0.0000	0.0000	0.0000	0.0000;
	13	0.000333067932	7.72775611	24	-6	1.05999835	100	1	100	0	0	0	0	0	0	0	0	0	0	0	0	0.0000	0.3477	0.0000	0.0000;
];

%% branch data
%	fbus	tbus	r	x	b	rateA	rateB	rateC	ratio	angle	status	angmin	angmax	Pf	Qf	Pt	Qt	mu_Sf	mu_St	mu_angmin	mu_angmax
mpc.branch = [
	1	2	0.0192	0.0575	0.0528	0	0	0	0	0	1	-360	360	139.1153	-6.4393	-135.8062	10.5306	0.0000	0.0000	0.0000	0.0000;
	1	3	0.0452	0.1652	0.0408	0	0	0	0	0	1	-360	360	73.1152	6.4402	-70.9340	-2.8877	0.0000	0.0000	0.0000	0.0000;
	2	4	0.057	0.1737	0.0368	0	0	0	0	0	1	-360	360	37.8621	3.2025	-37.0916	-4.7267	0.0000	0.0000	0.0000	0.0000;
	3	4	0.0132	0.0379	0.0084	0	0	0	0	0	1	-360	360	68.5340	1.6877	-67.9389	-0.8470	0.0000	0.0000	0.0000	0.0000;
	2	5	0.0472	0.1983	0.0418	0	0	0	0	0	1	-360	360	61.9292	0.4619	-60.2506	2.1876	0.0000	0.0000	0.0000	0.0000;
	2	6	0.0581	0.1763	0.0374	0	0	0	0	0	1	-360	360	50.5431	0.2797	-49.1666	-0.0342	0.0000	0.0000	0.0000	0.0000;
	4	6	0.0119	0.0414	0.009	0	0	0	0	0	1	-360	360	55.3137	-13.2385	-54.9391	13.6212	0.0000	0.0000	0.0000	0.0000;
	5	7	0.046	0.116	0.0204	0	0	0	0	0	1	-360	360	-4.5999	8.7602	4.6525	-10.7019	0.0000	0.0000	0.0000	0.0000;
	6	7	0.0267	0.082	0.017	0	0	0	0	0	1	-360	360	27.6523	-0.9134	-27.4525	-0.1981	0.0000	0.0000	0.0000	0.0000;
	6	8	0.012	0.042	0.009	0	0	0	0	0	1	-360	360	18.4371	-10.6431	-18.3850	9.9039	0.0000	0.0000	0.0000	0.0000;
	6	9	0	0.208	0	0	0	0	0.978	0	1	-360	360	25.4510	-3.6478	-25.4510	4.9348	0.0000	0.0000	0.0000	0.0000;
	6	10	0	0.556	0	0	0	0	0.969	0	1	-360	360	15.4744	1.4991	-15.4744	-0.2642	0.0000	0.0000	0.0000	0.0000;
	9	11	0	0.208	0	0	0	0	0	0	1	-360	360	-4.3952	-8.9025	4.3952	9.0913	0.0000	0.0000	0.0000	0.0000;
	9	10	0	0.11	0	0	0	0	0	0	1	-360	360	29.8462	3.9677	-29.8462	-3.0496	0.0000	0.0000	0.0000	0.0000;
	4	12	0	0.256	0	0	0	0	0.932	0	1	-360	360	42.1168	17.2122	-42.1168	-12.7161	0.0000	0.0000	0.0000	0.0000;
	12	13	0	0.14	0	0	0	0	0	0	1	-360	360	-0.0003	-7.6533	0.0003	7.7278	0.0000	0.0000	0.0000	0.0000;
	12	14	0.1231	0.2559	0	0	0	0	0	0	1	-360	360	7.6447	2.4581	-7.5727	-2.3084	0.0000	0.0000	0.0000	0.0000;
	12	15	0.0662	0.1304	0	0	0	0	0	0	1	-360	360	17.0305	6.8685	-16.8279	-6.4695	0.0000	0.0000	0.0000	0.0000;
	12	16	0.0945	0.1987	0	0	0	0	0	0	1	-360	360	6.2419	3.5429	-6.1977	-3.4500	0.0000	0.0000	0.0000	0.0000;
	14	15	0.221	0.1997	0	0	0	0	0	0	1	-360	360	1.3727	0.7084	-1.3678	-0.7039	0.0000	0.0000	0.0000	0.0000;
	16	17	0.0524	0.1923	0	0	0	0	0	0	1	-360	360	2.6977	1.6500	-2.6929	-1.6322	0.0000	0.0000	0.0000	0.0000;
	15	18	0.1073	0.2185	0	0	0	0	0	0	1	-360	360	5.4934	1.7879	-5.4597	-1.7192	0.0000	0.0000	0.0000	0.0000;
	18	19	0.0639	0.1292	0	0	0	0	0	0	1	-360	360	2.2597	0.8192	-2.2562	-0.8121	0.0000	0.0000	0.0000	0.0000;
	19	20	0.034	0.068	0	0	0	0	0	0	1	-360	360	-7.2438	-2.5879	7.2632	2.6267	0.0000	0.0000	0.0000	0.0000;
	10	20	0.0936	0.209	0	0	0	0	0	0	1	-360	360	9.5532	3.5277	-9.4632	-3.3267	0.0000	0.0000	0.0000	0.0000;
	10	17	0.0324	0.0845	0	0	0	0	0	0	1	-360	360	6.3245	4.2131	-6.3071	-4.1678	0.0000	0.0000	0.0000	0.0000;
	10	21	0.0348	0.0749	0	0	0	0	0	0	1	-360	360	15.9313	9.6810	-15.8191	-9.4397	0.0000	0.0000	0.0000	0.0000;
	10	22	0.0727	0.1499	0	0	0	0	0	0	1	-360	360	7.7117	4.3826	-7.6587	-4.2732	0.0000	0.0000	0.0000	0.0000;
	21	22	0.0116	0.0236	0	0	0	0	0	0	1	-360	360	-1.6809	-1.7603	1.6815	1.7616	0.0000	0.0000	0.0000	0.0000;
	15	23	0.1	0.202	0	0	0	0	0	0	1	-360	360	4.5023	2.8855	-4.4754	-2.8311	0.0000	0.0000	0.0000	0.0000;
	22	24	0.115	0.179	0	0	0	0	0	0	1	-360	360	5.9771	2.5116	-5.9313	-2.4402	0.0000	0.0000	0.0000	0.0000;
	23	24	0.132	0.27	0	0	0	0	0	0	1	-360	360	1.2754	1.2311	-1.2714	-1.2230	0.0000	0.0000	0.0000	0.0000;
	24	25	0.1885	0.3292	0	0	0	0	0	0	1	-360	360	-1.4974	1.3997	1.5050	-1.3863	0.0000	0.0000	0.0000	0.0000;
	25	26	0.2544	0.38	0	0	0	0	0	0	1	-360	360	3.5450	2.3672	-3.5000	-2.3000	0.0000	0.0000	0.0000	0.0000;
	25	27	0.1093	0.2087	0	0	0	0	0	0	1	-360	360	-5.0500	-0.9808	5.0781	1.0346	0.0000	0.0000	0.0000	0.0000;
	28	27	0	0.396	0	0	0	0	0.968	0	1	-360	360	18.3613	5.7202	-18.3613	-4.3684	0.0000	0.0000	0.0000	0.0000;
	27	29	0.2198	0.4153	0	0	0	0	0	0	1	-360	360	6.1905	1.6698	-6.1039	-1.5062	0.0000	0.0000	0.0000	0.0000;
	27	30	0.3202	0.6027	0	0	0	0	0	0	1	-360	360	7.0927	1.6640	-6.9298	-1.3575	0.0000	0.0000	0.0000	0.0000;
	29	30	0.2399	0.4533	0	0	0	0	0	0	1	-360	360	3.7039	0.6062	-3.6702	-0.5425	0.0000	0.0000	0.0000	0.0000;
	8	28	0.0636	0.2	0.0428	0	0	0	0	0	1	-360	360	1.3231	0.0948	-1.3188	-4.4494	0.0000	0.0000	0.0000	0.0000;
	6	28	0.0169	0.0599	0.013	0	0	0	0	0	1	-360	360	17.0909	0.1182	-17.0425	-1.2707	0.0000	0.0000	0.0000	0.0000;
];

%%-----  OPF Data  -----%%
%% generator cost data
%	1	startup	shutdown	n	x1	y1	...	xn	yn
%	2	startup	shutdown	n	c(n-1)	...	c0
mpc.gencost = [
	2	0	0	3	0.0384319754	20	0;
	2	0	0	3	0.25	20	0;
	2	0	0	3	0.01	40	0;
	2	0	0	3	0.01	40	0;
	2	0	0	3	0.01	40	0;
	2	0	0	3	0.01	40	0;
];

%% bus names
mpc.bus_name = {
	'Glen Lyn 132';
	'Claytor  132';
	'Kumis    132';
	'Hancock  132';
	'Fieldale 132';
	'Roanoke  132';
	'Blaine   132';
	'Reusens  132';
	'Roanoke  1.0';
	'Roanoke   33';
	'Roanoke   11';
	'Hancock   33';
	'Hancock   11';
	'Bus 14    33';
	'Bus 15    33';
	'Bus 16    33';
	'Bus 17    33';
	'Bus 18    33';
	'Bus 19    33';
	'Bus 20    33';
	'Bus 21    33';
	'Bus 22    33';
	'Bus 23    33';
	'Bus 24    33';
	'Bus 25    33';
	'Bus 26    33';
	'Cloverdle 33';
	'Cloverdle132';
	'Bus 29    33';
	'Bus 30    33';
};
